[TITLE]
Bangalore Water Distribution Network

[JUNCTIONS]
;ID              	Elev        	Demand      	Pattern         
 4               	0           	0           	1               	;
 8               	0           	0           	1               	;
 9               	0           	63          	1               	;
 34              	0           	0           	1               	;
 35              	0           	0           	1               	;
 36              	0           	0           	1               	;
 11              	0           	0           	1               	;
 90              	0           	0           	1               	;
 89              	0           	0           	1               	;
 5               	0           	0           	1               	;
 6               	0           	0           	1               	;
 7               	0           	0           	1               	;
 83              	0           	295         	1               	;
 91              	0           	0           	1               	;
 92              	0           	0           	1               	;
 88              	0           	0           	1               	;
 87              	0           	0           	1               	;
 82              	0           	104         	1               	;
 95              	0           	0           	1               	;
 22              	0           	0           	1               	;
 94              	0           	0           	1               	;
 93              	0           	0           	1               	;
 25              	0           	0           	1               	;
 26              	0           	0           	1               	;
 143             	0           	0           	1               	;
 144             	0           	0           	1               	;
 12              	0           	0           	1               	;
 140             	0           	0           	1               	;
 139             	0           	0           	1               	;
 13              	0           	0           	1               	;
 136             	0           	0           	1               	;
 135             	0           	0           	1               	;
 18              	0           	0           	1               	;
 134             	0           	0           	1               	;
 133             	0           	0           	1               	;
 19              	0           	0           	1               	;
 20              	0           	0           	1               	;
 131             	0           	0           	1               	;
 21              	0           	63          	1               	;
 80              	0           	364         	1               	;
 137             	0           	0           	1               	;
 138             	0           	0           	1               	;
 14              	0           	0           	1               	;
 15              	0           	0           	1               	;
 16              	0           	0           	1               	;
 17              	0           	63          	1               	;
 132             	0           	0           	1               	;
 40              	0           	0           	1               	;
 41              	0           	63          	1               	;
 39              	0           	0           	1               	;
 79              	0           	272         	1               	;
 38              	0           	0           	1               	;
 130             	0           	0           	1               	;
 129             	0           	0           	1               	;
 37              	0           	0           	1               	;
 127             	0           	0           	1               	;
 128             	0           	0           	1               	;
 42              	0           	0           	1               	;
 43              	0           	0           	1               	;
 147             	0           	0           	1               	;
 148             	0           	0           	1               	;
 71              	0           	0           	1               	;
 76              	0           	373         	1               	;
 118             	0           	0           	1               	;
 74              	0           	845         	1               	;
 78              	0           	217         	1               	;
 47              	0           	0           	1               	;
 46              	0           	0           	1               	;
 45              	0           	0           	1               	;
 123             	0           	0           	1               	;
 124             	0           	0           	1               	;
 77              	0           	25          	1               	;
 122             	0           	0           	1               	;
 121             	0           	0           	1               	;
 75              	0           	442         	1               	;
 44              	0           	0           	1               	;
 126             	0           	0           	1               	;
 125             	0           	0           	1               	;
 120             	0           	0           	1               	;
 119             	0           	0           	1               	;
 116             	0           	0           	1               	;
 115             	0           	0           	1               	;
 64              	0           	0           	1               	;
 113             	0           	0           	1               	;
 114             	0           	0           	1               	;
 73              	0           	300         	1               	;
 57              	0           	0           	1               	;
 112             	0           	0           	1               	;
 111             	0           	0           	1               	;
 58              	0           	0           	1               	;
 72              	0           	238         	1               	;
 65              	0           	0           	1               	;
 66              	0           	0           	1               	;
 59              	0           	0           	1               	;
 60              	0           	0           	1               	;
 61              	0           	63          	1               	;
 33              	0           	0           	1               	;
 62              	0           	0           	1               	;
 63              	0           	63          	1               	;
 32              	0           	0           	1               	;
 27              	0           	0           	1               	;
 30              	0           	0           	1               	;
 31              	0           	031         	1               	;
 109             	0           	0           	1               	;
 110             	0           	0           	1               	;
 28              	0           	0           	1               	;
 29              	0           	63          	1               	;
 56              	0           	0           	1               	;
 85              	0           	274         	1               	;
 55              	0           	0           	1               	;
 54              	0           	0           	1               	;
 52              	0           	0           	1               	;
 53              	0           	0           	1               	;
 106             	0           	0           	1               	;
 51              	0           	0           	1               	;
 105             	0           	0           	1               	;
 50              	0           	0           	1               	;
 102             	0           	0           	1               	;
 101             	0           	0           	1               	;
 48              	0           	0           	1               	;
 108             	0           	0           	1               	;
 86              	0           	447         	1               	;
 107             	0           	0           	1               	;
 104             	0           	0           	1               	;
 103             	0           	0           	1               	;
 24              	0           	0           	1               	;
 23              	0           	0           	1               	;
 98              	0           	0           	1               	;
 97              	0           	0           	1               	;
 100             	0           	0           	1               	;
 99              	0           	0           	1               	;
 49              	0           	0           	1               	;
 149             	0           	0           	1               	;
 150             	0           	0           	1               	;
 84              	0           	126         	1               	;
 69              	0           	0           	1               	;
 70              	0           	21          	1               	;
 67              	0           	0           	1               	;
 68              	0           	21          	1               	;
 145             	0           	0           	1               	;
 146             	0           	0           	1               	;
 142             	0           	0           	1               	;
 141             	0           	0           	1               	;
 81              	0           	0           	1               	;
 96              	0           	0           	1               	;
 117             	0           	0           	1               	;
 10              	0           	0           	1               	;

[RESERVOIRS]
;ID              	Head        	Pattern         
 1               	110         	                	;
 2               	100         	                	;
 3               	100         	                	;

[TANKS]
;ID              	Elevation   	InitLevel   	MinLevel    	MaxLevel    	Diameter    	MinVol      	VolCurve

[PIPES]
;ID              	Node1           	Node2           	Length      	Diameter    	Roughness   	MinorLoss   	Status
 1               	1               	4               	3660        	1200        	106.9       	0           	Open  	;
 2               	4               	8               	3600        	1200        	106.9       	0           	Open  	;
 3               	8               	9               	500         	500         	106.9       	0           	Open  	;
 4               	2               	34              	3660        	1220        	127.5       	0           	Open  	;
 5               	34              	35              	1100        	1220        	127.5       	0           	Open  	;
 6               	35              	36              	2200        	1220        	127.5       	0           	Open  	;
 7               	8               	11              	700         	1200        	106.9       	0           	Open  	;
 8               	4               	90              	25          	582         	106.9       	0           	Open  	;
 9               	89              	5               	25          	582         	106.9       	0           	Open  	;
 10              	5               	6               	1000        	300         	106.9       	0           	Open  	;
 11              	6               	7               	30          	300         	106.9       	0           	Open  	;
 12              	7               	83              	30          	600         	106.9       	0           	Open  	;
 13              	7               	91              	1000        	600         	127.5       	0           	Open  	;
 14              	92              	34              	1000        	600         	127.5       	0           	Open  	;
 15              	5               	88              	60          	1200        	106.9       	0           	Open  	;
 16              	87              	82              	60          	1200        	106.9       	0           	Open  	;
 17              	95              	22              	15          	750         	106.9       	0           	Open  	;
 18              	22              	94              	15          	600         	106.9       	0           	Open  	;
 19              	93              	25              	15          	600         	106.9       	0           	Open  	;
 20              	25              	26              	1800        	600         	106.9       	0           	Open  	;
 21              	11              	143             	500         	900         	106.9       	0           	Open  	;
 22              	144             	12              	500         	900         	106.9       	0           	Open  	;
 23              	12              	140             	900         	900         	106.9       	0           	Open  	;
 24              	139             	13              	900         	900         	106.9       	0           	Open  	;
 25              	13              	136             	1600        	900         	106.9       	0           	Open  	;
 26              	135             	18              	1600        	900         	106.9       	0           	Open  	;
 27              	18              	134             	900         	675         	106.9       	0           	Open  	;
 28              	133             	19              	900         	675         	106.9       	0           	Open  	;
 29              	20              	131             	3000        	300         	106.9       	0           	Open  	;
 30              	20              	21              	40          	300         	106.9       	0           	Open  	;
 32              	13              	137             	50          	600         	106.9       	0           	Open  	;
 33              	138             	14              	50          	600         	106.9       	0           	Open  	;
 34              	14              	15              	400         	600         	106.9       	0           	Open  	;
 35              	15              	16              	500         	600         	106.9       	0           	Open  	;
 36              	16              	17              	1500        	600         	106.9       	0           	Open  	;
 37              	132             	40              	3000        	300         	106.9       	0           	Open  	;
 38              	40              	41              	1500        	250         	106.9       	0           	Open  	;
 39              	39              	79              	1500        	675         	127.5       	0           	Open  	;
 40              	79              	38              	4000        	675         	127.5       	0           	Open  	;
 41              	38              	130             	2000        	675         	127.5       	0           	Open  	;
 42              	129             	37              	2000        	675         	127.5       	0           	Open  	;
 43              	37              	127             	750         	675         	127.5       	0           	Open  	;
 44              	128             	42              	750         	675         	127.5       	0           	Open  	;
 45              	42              	43              	1600        	675         	127.5       	0           	Open  	;
 46              	43              	147             	250         	600         	127.5       	0           	Open  	;
 47              	148             	71              	2200        	600         	103.6       	0           	Open  	;
 48              	71              	76              	1000        	600         	100         	0           	Open  	;
 49              	71              	118             	2600        	600         	103.6       	0           	Open  	;
 51              	37              	78              	15          	375         	106.9       	0           	Open  	;
 52              	47              	46              	1600        	675         	106.9       	0           	Open  	;
 53              	46              	45              	200         	675         	106.9       	0           	Open  	;
 54              	46              	123             	50          	300         	106.9       	0           	Open  	;
 55              	124             	77              	50          	300         	106.9       	0           	Open  	;
 56              	45              	122             	400         	600         	106.9       	0           	Open  	;
 57              	121             	75              	400         	600         	106.9       	0           	Open  	;
 58              	75              	44              	1900        	600         	106.9       	0           	Open  	;
 61              	45              	120             	1500        	600         	106.9       	0           	Open  	;
 62              	119             	74              	1500        	600         	106.9       	0           	Open  	;
 63              	74              	116             	850         	1129        	103.6       	0           	Open  	;
 64              	115             	64              	850         	1129        	103.6       	0           	Open  	;
 65              	64              	113             	50          	586         	103.6       	0           	Open  	;
 66              	114             	73              	50          	586         	103.6       	0           	Open  	;
 67              	64              	57              	300         	1129        	103.6       	0           	Open  	;
 68              	57              	3               	3140        	1129        	103.6       	0           	Open  	;
 69              	57              	112             	75          	600         	103.6       	0           	Open  	;
 70              	111             	58              	75          	600         	103.6       	0           	Open  	;
 71              	58              	72              	800         	600         	103.6       	0           	Open  	;
 72              	72              	65              	500         	600         	103.6       	0           	Open  	;
 73              	65              	66              	460         	600         	103.6       	0           	Open  	;
 75              	59              	60              	2200        	600         	103.6       	0           	Open  	;
 76              	60              	61              	30          	300         	103.6       	0           	Open  	;
 77              	60              	33              	1400        	300         	103.6       	0           	Open  	;
 78              	33              	62              	1400        	300         	103.6       	0           	Open  	;
 79              	62              	63              	800         	400         	103.6       	0           	Open  	;
 80              	32              	27              	2500        	600         	106.9       	0           	Open  	;
 81              	30              	31              	30          	300         	106.9       	0           	Open  	;
 82              	30              	109             	500         	300         	106.9       	0           	Open  	;
 83              	110             	27              	500         	300         	106.9       	0           	Open  	;
 84              	27              	28              	800         	300         	106.9       	0           	Open  	;
 85              	28              	29              	800         	300         	106.9       	0           	Open  	;
 87              	56              	85              	30          	600         	127.5       	0           	Open  	;
 88              	55              	56              	3200        	600         	127.5       	0           	Open  	;
 89              	54              	55              	1000        	600         	127.5       	0           	Open  	;
 90              	52              	53              	1000        	600         	127.5       	0           	Open  	;
 91              	106             	52              	85          	600         	127.5       	0           	Open  	;
 92              	51              	105             	85          	600         	127.5       	0           	Open  	;
 93              	50              	51              	170         	600         	127.5       	0           	Open  	;
 94              	50              	102             	225         	600         	127.5       	0           	Open  	;
 96              	108             	52              	420         	600         	127.5       	0           	Open  	;
 97              	86              	107             	420         	600         	127.5       	0           	Open  	;
 98              	86              	104             	300         	600         	106.9       	0           	Open  	;
 99              	103             	24              	300         	600         	106.9       	0           	Open  	;
 102             	36              	98              	300         	600         	127.5       	0           	Open  	;
 103             	97              	48              	300         	600         	127.5       	0           	Open  	;
 104             	48              	100             	2.5         	450         	127.5       	0           	Open  	;
 105             	99              	49              	2.5         	450         	127.5       	0           	Open  	;
 106             	49              	149             	220         	450         	127.5       	0           	Open  	;
 108             	69              	70              	200         	400         	103.5       	0           	Open  	;
 110             	67              	68              	30          	225         	103.5       	0           	Open  	;
 111             	36              	145             	3300        	1750        	127.5       	0           	Open  	;
 112             	146             	37              	3300        	1750        	127.5       	0           	Open  	;
 113             	12              	142             	25          	600         	106.9       	0           	Open  	;
 114             	141             	81              	25          	600         	106.9       	0           	Open  	;
 115             	11              	96              	15          	750         	106.9       	0           	Open  	;
 116             	24              	50              	5           	600         	127.5       	0           	Open  	;
 50              	117             	74              	2600        	600         	103.6       	0           	Open  	;
 109             	67              	69              	1000        	400         	103.5       	0           	Open  	;
 74              	58              	59              	200         	600         	103.6       	0           	Open  	;
 156             	27              	26              	2100        	600         	106.9       	0           	Open  	;
 101             	23              	22              	570         	750         	106.9       	0           	Open  	;
 100             	24              	23              	400         	600         	106.9       	0           	Open  	;
 59              	44              	126             	675         	450         	106.9       	0           	Open  	;
 107             	150             	84              	220         	450         	127.5       	0           	Open  	;
 60              	125             	42              	675         	450         	106.9       	0           	Open  	;
 31              	18              	80              	50          	600         	106.9       	0           	Open  	;
 95              	101             	48              	225         	600         	127.5       	0           	Open  	;

[PUMPS]
;ID              	Node1           	Node2           	Parameters
 150             	66              	67              	HEAD 2	;
 151             	53              	54              	HEAD 3	;
 152             	39              	40              	HEAD 4	;
 153             	19              	20              	HEAD 5	;
 155             	9               	10              	HEAD 7	;
 149             	32              	33              	HEAD 1	;
 154             	37              	47              	HEAD 6	;

[VALVES]
;ID              	Node1           	Node2           	Diameter    	Type	Setting     	MinorLoss   
 117             	87              	88              	1200        	FCV 	300         	0           	;
 118             	89              	90              	582         	FCV 	1300        	0           	;
 119             	91              	92              	600         	FCV 	1500        	0           	;
 120             	143             	144             	900         	FCV 	2000        	0           	;
 121             	96              	95              	750         	FCV 	1700        	0           	;
 122             	93              	94              	600         	FCV 	1500        	0           	;
 123             	101             	102             	600         	FCV 	01500       	0           	;
 124             	105             	106             	600         	FCV 	1500        	0           	;
 125             	109             	110             	300         	FCV 	750         	0           	;
 126             	103             	104             	600         	FCV 	1500        	0           	;
 128             	99              	100             	450         	FCV 	1000        	0           	;
 129             	149             	150             	450         	FCV 	1000        	0           	;
 130             	140             	139             	900         	FCV 	2000        	0           	;
 131             	137             	138             	600         	FCV 	1500        	0           	;
 132             	136             	135             	900         	FCV 	2000        	0           	;
 133             	133             	134             	675         	FCV 	1700        	0           	;
 134             	131             	132             	300         	FCV 	750         	0           	;
 135             	130             	129             	675         	FCV 	1700        	0           	;
 136             	127             	128             	675         	FCV 	1700        	0           	;
 137             	147             	148             	600         	FCV 	1700        	0           	;
 139             	123             	124             	300         	FCV 	750         	0           	;
 140             	122             	121             	600         	FCV 	1500        	0           	;
 141             	145             	146             	1750        	FCV 	3000        	0           	;
 142             	117             	118             	600         	FCV 	1500        	0           	;
 143             	116             	115             	1129        	FCV 	2500        	0           	;
 145             	111             	112             	600         	FCV 	1500        	0           	;
 146             	119             	120             	600         	FCV 	1500        	0           	;
 147             	107             	108             	600         	FCV 	1500        	0           	;
 148             	142             	141             	600         	FCV 	1500        	0           	;
 144             	113             	114             	586         	FCV 	1400        	0           	;
 127             	97              	98              	600         	PRV 	1500        	0           	;
 138             	126             	125             	450         	PRV 	1000        	0           	;

[TAGS]

[DEMANDS]
;Junction        	Demand      	Pattern         	Category

[STATUS]
;ID              	Status/Setting
 155             	Closed
 117             	Open
 118             	Open
 119             	Open
 120             	Open
 121             	Open
 122             	Open
 123             	Open
 124             	Open
 125             	Open
 126             	Open
 128             	Open
 129             	Open
 130             	Open
 131             	Open
 132             	Open
 133             	Open
 134             	Open
 135             	Open
 136             	Open
 137             	Open
 139             	Open
 140             	Open
 141             	Open
 142             	Open
 143             	Open
 145             	Open
 146             	Open
 147             	Open
 148             	Open
 144             	Open
 127             	Open
 138             	Open

[PATTERNS]
;ID              	Multipliers
;
 1               	0.85        	0.76        	0.92        	1           	1.15        	1.34        
 1               	1.2         	1.94        	1.1         	1.08        	0.98        	1.14        
 1               	1.03        	0.9         	0.83        	0.79        	0.74        	0.5         
 1               	0.64        	0.85        	0.96        	1.24        	0.67        	1.08        

[CURVES]
;ID              	X-Value     	Y-Value
;PUMP: PUMP: PUMP: 
 1               	0           	85.88       
 1               	180.81      	62.05       
 1               	361.62      	0           
;PUMP: PUMP: PUMP: 
 2               	0           	38.4        
 2               	90.92       	27.75       
 2               	181.84      	0           
;PUMP: PUMP: PUMP: 
 3               	0           	18          
 3               	194.755     	15.70       
 3               	600         	0           
;PUMP: PUMP: PUMP: 
 4               	0           	55          
 4               	136.43      	27.74       
 4               	225         	0           
;PUMP: PUMP: PUMP: 
 5               	0           	57.6        
 5               	79.5885     	41.622      
 5               	159.177     	0           
;PUMP: PUMP: PUMP: 
 6               	0           	45          
 6               	443.42      	27.74       
 6               	886.84      	0           
;PUMP: PUMP: PUMP: 
 7               	0           	29.44       
 7               	129.615     	21.27       
 7               	259.23      	0           

[CONTROLS]



[RULES]



[ENERGY]
 Global Efficiency  	75
 Global Price       	2
 Demand Charge      	0

[EMITTERS]
;Junction        	Coefficient

[QUALITY]
;Node            	InitQual

[SOURCES]
;Node            	Type        	Quality     	Pattern

[REACTIONS]
;Type     	Pipe/Tank       	Coefficient


[REACTIONS]
 Order Bulk            	1
 Order Tank            	1
 Order Wall            	1
 Global Bulk           	0
 Global Wall           	0
 Limiting Potential    	0
 Roughness Correlation 	0

[MIXING]
;Tank            	Model

[TIMES]
 Duration           	24:00 
 Hydraulic Timestep 	1:00 
 Quality Timestep   	0:05 
 Pattern Timestep   	1:00 
 Pattern Start      	0:00 
 Report Timestep    	1:00 
 Report Start       	0:00 
 Start ClockTime    	12 am
 Statistic          	NONE

[REPORT]
 Status             	No
 Summary            	No
 Page               	0
 Links                  All